Version 4
SHEET 1 880 680
WIRE -1024 -608 -1088 -608
WIRE -1520 -592 -1536 -592
WIRE -1136 -592 -1520 -592
WIRE -976 -592 -1088 -592
WIRE -1136 -576 -1136 -592
WIRE -928 -576 -1088 -576
WIRE -1536 -480 -1536 -592
WIRE -1136 -464 -1136 -496
WIRE -992 -368 -1056 -368
WIRE -944 -352 -1056 -352
WIRE -1136 -336 -1136 -464
WIRE -1136 -336 -1184 -336
WIRE -1104 -336 -1136 -336
WIRE -896 -336 -1056 -336
WIRE -1536 -256 -1536 -400
WIRE -1344 -256 -1536 -256
WIRE -1184 -256 -1184 -272
WIRE -1184 -256 -1344 -256
WIRE -1104 -256 -1184 -256
WIRE -1344 -128 -1344 -256
FLAG -1344 -128 0
FLAG -1024 -608 xs
FLAG -976 -592 ys
FLAG -928 -576 zs
FLAG -1520 -592 Vs
FLAG -992 -368 xn
FLAG -944 -352 yn
FLAG -896 -336 zn
FLAG -1136 -464 Vn
SYMBOL voltage -1536 -496 R0
WINDOW 123 0 0 Left 0
WINDOW 39 0 0 Left 0
WINDOW 3 -240 100 Left 2
SYMATTR Value PULSE(0.000000001 6 1m 0.1u 0.1u 1m 2m 15)
SYMATTR InstName V1
SYMBOL cap -1200 -336 R0
SYMATTR InstName C1
SYMATTR Value 1n
SYMBOL memristor_neuron -1120 -352 R0
SYMATTR InstName Uneuron
SYMBOL memristor_synapse -1152 -592 R0
SYMATTR InstName Usynapse
TEXT -1760 -240 Left 2 !.tran 0 40m 0.0000001 0.25u uic
