Version 4
SHEET 1 880 680
WIRE -1024 -608 -1088 -608
WIRE -1520 -592 -1536 -592
WIRE -1392 -592 -1520 -592
WIRE -1248 -592 -1312 -592
WIRE -1136 -592 -1248 -592
WIRE -976 -592 -1088 -592
WIRE -1136 -576 -1136 -592
WIRE -928 -576 -1088 -576
WIRE -1248 -560 -1248 -592
WIRE -1536 -512 -1536 -592
WIRE -1136 -496 -1248 -496
WIRE -1536 -400 -1536 -432
WIRE -1536 -304 -1536 -320
WIRE -1344 -304 -1536 -304
WIRE -1136 -304 -1136 -496
WIRE -1136 -304 -1344 -304
WIRE -1344 -128 -1344 -304
FLAG -1344 -128 0
FLAG -1024 -608 x
FLAG -976 -592 y
FLAG -928 -576 z
FLAG -1520 -592 Vs
FLAG -1136 -576 Vm
SYMBOL memristor_vol -1152 -592 R0
SYMATTR InstName Memristor
SYMBOL voltage -1536 -528 R0
WINDOW 123 0 0 Left 0
WINDOW 39 0 0 Left 0
SYMATTR InstName V1
SYMATTR Value PULSE(0.000000001 1 10u 0.1u 0.1u 1m 2m 10)
SYMBOL res -1296 -608 R90
WINDOW 0 0 56 VBottom 2
WINDOW 3 32 56 VTop 2
SYMATTR InstName R1
SYMATTR Value 10k
SYMBOL cap -1264 -560 R0
SYMATTR InstName C1
SYMATTR Value 50n
SYMBOL voltage -1536 -416 R0
WINDOW 123 0 0 Left 0
WINDOW 39 0 0 Left 0
SYMATTR InstName V2
SYMATTR Value PULSE(0.000000001 1 180m 0.1u 0.1u 1m 2m 5)
TEXT -1936 -224 Left 2 !.tran 0 0.5 0.0000001 0.25u uic
